<?xml version="1.0" encoding="UTF-8"?>

<!-- generated on 2024-04-10 19:29:44 by Eclipse SUMO netconvert Version 1.19.0
<configuration xmlns:xsi="http://www.w3.org/2001/XMLSchema-instance" xsi:noNamespaceSchemaLocation="http://sumo.dlr.de/xsd/netconvertConfiguration.xsd">

    <input>
        <osm-files value="kowdiar.osm"/>
    </input>

    <output>
        <output-file value="kowdiar.net.xml"/>
    </output>

    <projection>
        <proj.utm value="true"/>
    </projection>

    <processing>
        <geometry.remove value="true"/>
    </processing>

    <tls_building>
        <tls.discard-simple value="true"/>
    </tls_building>

</configuration>
-->

<net version="1.16" junctionCornerDetail="5" limitTurnSpeed="5.50" xmlns:xsi="http://www.w3.org/2001/XMLSchema-instance" xsi:noNamespaceSchemaLocation="http://sumo.dlr.de/xsd/net_file.xsd">

    <location netOffset="-714822.36,-941588.58" convBoundary="0.00,0.00,2261.48,2023.05" origBoundary="76.951590,8.513268,76.972122,8.531557" projParameter="+proj=utm +zone=43 +ellps=WGS84 +datum=WGS84 +units=m +no_defs"/>

    <type id="highway.living_street" priority="2" numLanes="1" speed="2.78" disallow="tram rail_urban rail rail_electric rail_fast ship" oneway="0"/>
    <type id="highway.primary" priority="12" numLanes="2" speed="27.78" disallow="tram rail_urban rail rail_electric rail_fast ship" oneway="0"/>
    <type id="highway.primary_link" priority="7" numLanes="1" speed="22.22" disallow="tram rail_urban rail rail_electric rail_fast ship" oneway="0"/>
    <type id="highway.residential" priority="3" numLanes="1" speed="13.89" disallow="tram rail_urban rail rail_electric rail_fast ship" oneway="0"/>
    <type id="highway.service" priority="1" numLanes="1" speed="5.56" allow="pedestrian delivery bicycle" oneway="0"/>
    <type id="highway.tertiary" priority="10" numLanes="1" speed="22.22" disallow="tram rail_urban rail rail_electric rail_fast ship" oneway="0"/>
    <type id="highway.unclassified" priority="4" numLanes="1" speed="13.89" disallow="tram rail_urban rail rail_electric rail_fast ship" oneway="0"/>

    <edge id=":10172933918_0" function="internal">
        <lane id=":10172933918_0_0" index="0" disallow="tram rail_urban rail rail_electric rail_fast ship" speed="13.89" length="14.85" shape="926.24,414.04 922.52,414.27 918.83,414.42 915.13,414.47 911.40,414.44"/>
    </edge>
    <edge id=":10172933918_1" function="internal">
        <lane id=":10172933918_1_0" index="0" disallow="tram rail_urban rail rail_electric rail_fast ship" speed="7.92" length="4.20" shape="926.24,414.04 922.29,413.77 922.08,413.66"/>
    </edge>
    <edge id=":10172933918_2" function="internal">
        <lane id=":10172933918_2_0" index="0" disallow="tram rail_urban rail rail_electric rail_fast ship" speed="3.65" length="1.44" shape="926.24,414.04 924.98,413.33"/>
    </edge>
    <edge id=":10172933918_9" function="internal">
        <lane id=":10172933918_9_0" index="0" disallow="tram rail_urban rail rail_electric rail_fast ship" speed="7.92" length="10.17" shape="922.08,413.66 919.42,412.28 917.66,409.59 916.98,405.68"/>
    </edge>
    <edge id=":10172933918_10" function="internal">
        <lane id=":10172933918_10_0" index="0" disallow="tram rail_urban rail rail_electric rail_fast ship" speed="3.65" length="3.23" shape="924.98,413.33 924.53,412.56 924.87,411.73 926.00,410.84"/>
    </edge>
    <edge id=":10172933918_3" function="internal">
        <lane id=":10172933918_3_0" index="0" disallow="tram rail_urban rail rail_electric rail_fast ship" speed="6.41" length="9.04" shape="920.18,405.59 920.61,408.05 921.72,409.74 923.52,410.67 926.00,410.84"/>
    </edge>
    <edge id=":10172933918_4" function="internal">
        <lane id=":10172933918_4_0" index="0" disallow="tram rail_urban rail rail_electric rail_fast ship" speed="7.92" length="14.38" shape="920.18,405.59 919.73,409.53 918.11,412.32 915.34,413.96 911.40,414.44"/>
    </edge>
    <edge id=":10172933918_5" function="internal">
        <lane id=":10172933918_5_0" index="0" disallow="tram rail_urban rail rail_electric rail_fast ship" speed="3.65" length="4.67" shape="920.18,405.59 919.42,406.81 918.63,407.23 917.82,406.86 916.98,405.68"/>
    </edge>
    <edge id=":10172933918_6" function="internal">
        <lane id=":10172933918_6_0" index="0" disallow="tram rail_urban rail rail_electric rail_fast ship" speed="6.41" length="9.04" shape="911.47,411.24 913.94,410.94 915.68,409.91 916.70,408.16 916.98,405.68"/>
    </edge>
    <edge id=":10172933918_7" function="internal">
        <lane id=":10172933918_7_0" index="0" disallow="tram rail_urban rail rail_electric rail_fast ship" speed="13.89" length="14.55" shape="911.47,411.24 915.15,411.28 918.74,411.22 922.33,411.08 926.00,410.84"/>
    </edge>
    <edge id=":10172933918_8" function="internal">
        <lane id=":10172933918_8_0" index="0" disallow="tram rail_urban rail rail_electric rail_fast ship" speed="3.65" length="1.44" shape="911.47,411.24 912.65,412.07"/>
    </edge>
    <edge id=":10172933918_11" function="internal">
        <lane id=":10172933918_11_0" index="0" disallow="tram rail_urban rail rail_electric rail_fast ship" speed="3.65" length="3.23" shape="912.65,412.07 913.03,412.88 912.62,413.67 911.40,414.44"/>
    </edge>
    <edge id=":10172933920_0" function="internal">
        <lane id=":10172933920_0_0" index="0" disallow="tram rail_urban rail rail_electric rail_fast ship" speed="3.65" length="4.67" shape="958.81,417.75 959.58,418.97 959.62,419.86 958.93,420.43 957.51,420.68"/>
    </edge>
    <edge id=":10172933922_0" function="internal">
        <lane id=":10172933922_0_0" index="0" disallow="tram rail_urban rail rail_electric rail_fast ship" speed="3.65" length="4.67" shape="861.78,416.87 860.50,416.20 860.02,415.44 860.34,414.60 861.45,413.68"/>
    </edge>
    <edge id=":10232817882_0" function="internal">
        <lane id=":10232817882_0_0" index="0" disallow="tram rail_urban rail rail_electric rail_fast ship" speed="6.87" length="9.48" shape="607.06,736.10 606.15,733.58 604.72,731.88 602.78,731.00 600.33,730.95"/>
    </edge>
    <edge id=":10232817882_1" function="internal">
        <lane id=":10232817882_1_0" index="0" disallow="tram rail_urban rail rail_electric rail_fast ship" speed="7.87" length="14.50" shape="607.06,736.10 606.75,732.09 607.82,729.04 610.28,726.95 614.14,725.82"/>
    </edge>
    <edge id=":10232817882_2" function="internal">
        <lane id=":10232817882_2_0" index="0" disallow="tram rail_urban rail rail_electric rail_fast ship" speed="3.65" length="4.67" shape="607.06,736.10 607.58,734.75 608.27,734.18 609.14,734.40 610.18,735.39"/>
    </edge>
    <edge id=":10232817882_3" function="internal">
        <lane id=":10232817882_3_0" index="0" disallow="tram rail_urban rail rail_electric rail_fast ship" speed="6.34" length="9.04" shape="614.59,728.98 612.19,729.69 610.66,730.99 609.99,732.90 610.18,735.39"/>
    </edge>
    <edge id=":10232817882_4" function="internal">
        <lane id=":10232817882_4_0" index="0" disallow="tram rail_urban rail rail_electric rail_fast ship" speed="13.89" length="14.40" shape="614.59,728.98 600.33,730.95"/>
    </edge>
    <edge id=":10232817882_5" function="internal">
        <lane id=":10232817882_5_0" index="0" disallow="tram rail_urban rail rail_electric rail_fast ship" speed="3.65" length="1.44" shape="614.59,728.98 613.29,728.36"/>
    </edge>
    <edge id=":10232817882_9" function="internal">
        <lane id=":10232817882_9_0" index="0" disallow="tram rail_urban rail rail_electric rail_fast ship" speed="3.65" length="3.23" shape="613.29,728.36 612.78,727.63 613.06,726.78 614.14,725.82"/>
    </edge>
    <edge id=":10232817882_6" function="internal">
        <lane id=":10232817882_6_0" index="0" disallow="tram rail_urban rail rail_electric rail_fast ship" speed="13.89" length="14.36" shape="599.92,727.77 614.14,725.82"/>
    </edge>
    <edge id=":10232817882_7" function="internal">
        <lane id=":10232817882_7_0" index="0" disallow="tram rail_urban rail rail_electric rail_fast ship" speed="8.31" length="3.88" shape="599.92,727.77 603.67,727.84 603.78,727.89"/>
    </edge>
    <edge id=":10232817882_8" function="internal">
        <lane id=":10232817882_8_0" index="0" disallow="tram rail_urban rail rail_electric rail_fast ship" speed="3.65" length="1.44" shape="599.92,727.77 601.21,728.41"/>
    </edge>
    <edge id=":10232817882_10" function="internal">
        <lane id=":10232817882_10_0" index="0" disallow="tram rail_urban rail rail_electric rail_fast ship" speed="8.31" length="10.42" shape="603.78,727.89 606.64,729.14 608.81,731.65 610.18,735.39"/>
    </edge>
    <edge id=":10232817882_11" function="internal">
        <lane id=":10232817882_11_0" index="0" disallow="tram rail_urban rail rail_electric rail_fast ship" speed="3.65" length="3.23" shape="601.21,728.41 601.71,729.15 601.42,730.00 600.33,730.95"/>
    </edge>
    <edge id=":11189846349_0" function="internal">
        <lane id=":11189846349_0_0" index="0" disallow="tram rail_urban rail rail_electric rail_fast ship" speed="6.86" length="9.37" shape="987.82,1207.34 987.03,1205.03 985.63,1203.44 983.62,1202.59 981.00,1202.46"/>
    </edge>
    <edge id=":11189846349_1" function="internal">
        <lane id=":11189846349_1_0" index="0" disallow="tram rail_urban rail rail_electric rail_fast ship" speed="11.11" length="14.30" shape="987.82,1207.34 985.73,1193.19"/>
    </edge>
    <edge id=":11189846349_2" function="internal">
        <lane id=":11189846349_2_0" index="0" disallow="tram rail_urban rail rail_electric rail_fast ship" speed="3.65" length="4.67" shape="987.82,1207.34 988.40,1206.02 989.11,1205.48 989.97,1205.73 990.97,1206.77"/>
    </edge>
    <edge id=":11189846349_3" function="internal">
        <lane id=":11189846349_3_0" index="0" disallow="tram rail_urban rail rail_electric rail_fast ship" speed="11.11" length="14.09" shape="988.91,1192.83 990.97,1206.77"/>
    </edge>
    <edge id=":11189846349_4" function="internal">
        <lane id=":11189846349_4_0" index="0" disallow="tram rail_urban rail rail_electric rail_fast ship" speed="7.94" length="14.33" shape="988.91,1192.83 988.80,1196.77 987.45,1199.69 984.84,1201.59 981.00,1202.46"/>
    </edge>
    <edge id=":11189846349_5" function="internal">
        <lane id=":11189846349_5_0" index="0" disallow="tram rail_urban rail rail_electric rail_fast ship" speed="3.65" length="4.67" shape="988.91,1192.83 988.25,1194.11 987.50,1194.60 986.66,1194.29 985.73,1193.19"/>
    </edge>
    <edge id=":11189846349_6" function="internal">
        <lane id=":11189846349_6_0" index="0" disallow="tram rail_urban rail rail_electric rail_fast ship" speed="6.43" length="9.03" shape="980.74,1199.27 983.17,1198.72 984.81,1197.52 985.66,1195.68 985.73,1193.19"/>
    </edge>
    <edge id=":11189846349_7" function="internal">
        <lane id=":11189846349_7_0" index="0" disallow="tram rail_urban rail rail_electric rail_fast ship" speed="8.30" length="14.17" shape="980.74,1199.27 984.65,1199.47 987.66,1200.79 989.77,1203.22 990.97,1206.77"/>
    </edge>
    <edge id=":11189846349_8" function="internal">
        <lane id=":11189846349_8_0" index="0" disallow="tram rail_urban rail rail_electric rail_fast ship" speed="3.65" length="4.67" shape="980.74,1199.27 982.00,1199.97 982.46,1200.73 982.13,1201.56 981.00,1202.46"/>
    </edge>
    <edge id=":11189846350_0" function="internal">
        <lane id=":11189846350_0_0" index="0" disallow="tram rail_urban rail rail_electric rail_fast ship" speed="3.65" length="4.67" shape="911.01,1210.17 909.66,1209.65 909.10,1208.96 909.31,1208.09 910.31,1207.05"/>
    </edge>
    <edge id=":11193276857_0" function="internal">
        <lane id=":11193276857_0_0" index="0" disallow="tram rail_urban rail rail_electric rail_fast ship" speed="3.65" length="4.67" shape="790.20,748.83 788.83,748.38 788.23,747.72 788.40,746.84 789.34,745.75"/>
    </edge>
    <edge id=":11194346248_0" function="internal">
        <lane id=":11194346248_0_0" index="0" disallow="tram rail_urban rail rail_electric rail_fast ship" speed="6.71" length="9.28" shape="1124.47,614.64 1121.92,615.07 1120.08,616.16 1118.95,617.92 1118.54,620.34"/>
    </edge>
    <edge id=":11194346248_1" function="internal">
        <lane id=":11194346248_1_0" index="0" disallow="tram rail_urban rail rail_electric rail_fast ship" speed="7.92" length="14.37" shape="1124.47,614.64 1120.54,614.20 1117.74,612.60 1116.09,609.83 1115.58,605.91"/>
    </edge>
    <edge id=":11194346248_2" function="internal">
        <lane id=":11194346248_2_0" index="0" disallow="tram rail_urban rail rail_electric rail_fast ship" speed="3.65" length="4.67" shape="1124.47,614.64 1123.25,613.88 1122.82,613.09 1123.20,612.28 1124.37,611.44"/>
    </edge>
    <edge id=":11194346248_3" function="internal">
        <lane id=":11194346248_3_0" index="0" disallow="tram rail_urban rail rail_electric rail_fast ship" speed="6.41" length="9.04" shape="1118.78,605.95 1119.10,608.42 1120.14,610.16 1121.90,611.17 1124.37,611.44"/>
    </edge>
    <edge id=":11194346248_4" function="internal">
        <lane id=":11194346248_4_0" index="0" disallow="tram rail_urban rail rail_electric rail_fast ship" speed="13.89" length="14.40" shape="1118.78,605.95 1118.54,620.34"/>
    </edge>
    <edge id=":11194346248_5" function="internal">
        <lane id=":11194346248_5_0" index="0" disallow="tram rail_urban rail rail_electric rail_fast ship" speed="3.65" length="1.44" shape="1118.78,605.95 1117.96,607.14"/>
    </edge>
    <edge id=":11194346248_9" function="internal">
        <lane id=":11194346248_9_0" index="0" disallow="tram rail_urban rail rail_electric rail_fast ship" speed="3.65" length="3.23" shape="1117.96,607.14 1117.16,607.53 1116.36,607.12 1115.58,605.91"/>
    </edge>
    <edge id=":11194346248_6" function="internal">
        <lane id=":11194346248_6_0" index="0" disallow="tram rail_urban rail rail_electric rail_fast ship" speed="13.89" length="14.38" shape="1115.34,620.28 1115.58,605.91"/>
    </edge>
    <edge id=":11194346248_7" function="internal">
        <lane id=":11194346248_7_0" index="0" disallow="tram rail_urban rail rail_electric rail_fast ship" speed="8.17" length="3.96" shape="1115.34,620.28 1115.97,616.52 1116.05,616.39"/>
    </edge>
    <edge id=":11194346248_8" function="internal">
        <lane id=":11194346248_8_0" index="0" disallow="tram rail_urban rail rail_electric rail_fast ship" speed="3.65" length="1.44" shape="1115.34,620.28 1116.17,619.10"/>
    </edge>
    <edge id=":11194346248_10" function="internal">
        <lane id=":11194346248_10_0" index="0" disallow="tram rail_urban rail rail_electric rail_fast ship" speed="8.17" length="10.29" shape="1116.05,616.39 1117.68,613.79 1120.49,612.10 1124.37,611.44"/>
    </edge>
    <edge id=":11194346248_11" function="internal">
        <lane id=":11194346248_11_0" index="0" disallow="tram rail_urban rail rail_electric rail_fast ship" speed="3.65" length="3.23" shape="1116.17,619.10 1116.97,618.71 1117.77,619.13 1118.54,620.34"/>
    </edge>
    <edge id=":11194347037_0" function="internal">
        <lane id=":11194347037_0_0" index="0" disallow="tram rail_urban rail rail_electric rail_fast ship" speed="3.65" length="4.67" shape="1194.65,735.28 1196.07,735.51 1196.77,736.06 1196.75,736.96 1195.99,738.19"/>
    </edge>
    <edge id=":11196174910_0" function="internal">
        <lane id=":11196174910_0_0" index="0" disallow="tram rail_urban rail rail_electric rail_fast ship" speed="2.78" length="4.67" shape="550.60,903.95 549.29,903.34 548.78,902.61 549.05,901.76 550.12,900.79"/>
    </edge>
    <edge id=":11199072499_0" function="internal">
        <lane id=":11199072499_0_0" index="0" disallow="tram rail_urban rail rail_electric rail_fast ship" speed="6.80" length="9.41" shape="367.15,807.44 365.17,805.67 363.13,804.88 361.03,805.06 358.86,806.21"/>
    </edge>
    <edge id=":11199072499_1" function="internal">
        <lane id=":11199072499_1_0" index="0" disallow="tram rail_urban rail rail_electric rail_fast ship" speed="7.88" length="14.47" shape="367.15,807.44 364.99,804.06 364.50,800.87 365.68,797.86 368.52,795.04"/>
    </edge>
    <edge id=":11199072499_2" function="internal">
        <lane id=":11199072499_2_0" index="0" disallow="tram rail_urban rail rail_electric rail_fast ship" speed="3.65" length="4.67" shape="367.15,807.44 366.97,806.01 367.32,805.18 368.18,804.97 369.57,805.35"/>
    </edge>
    <edge id=":11199072499_3" function="internal">
        <lane id=":11199072499_3_0" index="0" disallow="tram rail_urban rail rail_electric rail_fast ship" speed="6.36" length="9.04" shape="370.43,797.61 368.65,799.37 367.92,801.25 368.23,803.24 369.57,805.35"/>
    </edge>
    <edge id=":11199072499_4" function="internal">
        <lane id=":11199072499_4_0" index="0" disallow="tram rail_urban rail rail_electric rail_fast ship" speed="13.89" length="14.42" shape="370.43,797.61 358.86,806.21"/>
    </edge>
    <edge id=":11199072499_5" function="internal">
        <lane id=":11199072499_5_0" index="0" disallow="tram rail_urban rail rail_electric rail_fast ship" speed="3.65" length="1.44" shape="370.43,797.61 368.99,797.68"/>
    </edge>
    <edge id=":11199072499_9" function="internal">
        <lane id=":11199072499_9_0" index="0" disallow="tram rail_urban rail rail_electric rail_fast ship" speed="3.65" length="3.23" shape="368.99,797.68 368.19,797.28 368.03,796.40 368.52,795.04"/>
    </edge>
    <edge id=":11199072499_6" function="internal">
        <lane id=":11199072499_6_0" index="0" disallow="tram rail_urban rail rail_electric rail_fast ship" speed="13.89" length="14.41" shape="356.95,803.64 368.52,795.04"/>
    </edge>
    <edge id=":11199072499_7" function="internal">
        <lane id=":11199072499_7_0" index="0" disallow="tram rail_urban rail rail_electric rail_fast ship" speed="8.25" length="3.95" shape="356.95,803.64 360.29,801.85 360.45,801.84"/>
    </edge>
    <edge id=":11199072499_8" function="internal">
        <lane id=":11199072499_8_0" index="0" disallow="tram rail_urban rail rail_electric rail_fast ship" speed="3.65" length="1.44" shape="356.95,803.64 358.39,803.57"/>
    </edge>
    <edge id=":11199072499_10" function="internal">
        <lane id=":11199072499_10_0" index="0" disallow="tram rail_urban rail rail_electric rail_fast ship" speed="8.25" length="10.35" shape="360.45,801.84 363.50,801.54 366.60,802.71 369.57,805.35"/>
    </edge>
    <edge id=":11199072499_11" function="internal">
        <lane id=":11199072499_11_0" index="0" disallow="tram rail_urban rail rail_electric rail_fast ship" speed="3.65" length="3.23" shape="358.39,803.57 359.19,803.97 359.35,804.85 358.86,806.21"/>
    </edge>
    <edge id=":11199072500_0" function="internal">
        <lane id=":11199072500_0_0" index="0" disallow="tram rail_urban rail rail_electric rail_fast ship" speed="3.65" length="4.67" shape="399.32,839.88 399.50,841.31 399.16,842.14 398.29,842.36 396.90,841.97"/>
    </edge>
    <edge id=":11199097479_0" function="internal">
        <lane id=":11199097479_0_0" index="0" disallow="tram rail_urban rail rail_electric rail_fast ship" speed="13.89" length="14.44" shape="379.66,1122.80 365.22,1123.19"/>
    </edge>
    <edge id=":11199097479_1" function="internal">
        <lane id=":11199097479_1_0" index="0" disallow="tram rail_urban rail rail_electric rail_fast ship" speed="8.56" length="3.77" shape="379.66,1122.80 375.93,1122.23"/>
    </edge>
    <edge id=":11199097479_2" function="internal">
        <lane id=":11199097479_2_0" index="0" disallow="tram rail_urban rail rail_electric rail_fast ship" speed="3.65" length="1.44" shape="379.66,1122.80 378.42,1122.05"/>
    </edge>
    <edge id=":11199097479_9" function="internal">
        <lane id=":11199097479_9_0" index="0" disallow="tram rail_urban rail rail_electric rail_fast ship" speed="8.56" length="10.64" shape="375.93,1122.23 373.08,1120.59 371.10,1117.85 369.99,1114.04"/>
    </edge>
    <edge id=":11199097479_10" function="internal">
        <lane id=":11199097479_10_0" index="0" disallow="tram rail_urban rail rail_electric rail_fast ship" speed="3.65" length="3.23" shape="378.42,1122.05 377.99,1121.26 378.36,1120.45 379.52,1119.60"/>
    </edge>
    <edge id=":11199097479_3" function="internal">
        <lane id=":11199097479_3_0" index="0" disallow="tram rail_urban rail rail_electric rail_fast ship" speed="7.13" length="9.70" shape="373.15,1113.55 373.90,1116.18 375.21,1118.07 377.09,1119.21 379.52,1119.60"/>
    </edge>
    <edge id=":11199097479_4" function="internal">
        <lane id=":11199097479_4_0" index="0" disallow="tram rail_urban rail rail_electric rail_fast ship" speed="7.81" length="14.64" shape="373.15,1113.55 373.19,1117.62 371.89,1120.59 369.23,1122.45 365.22,1123.19"/>
    </edge>
    <edge id=":11199097479_5" function="internal">
        <lane id=":11199097479_5_0" index="0" disallow="tram rail_urban rail rail_electric rail_fast ship" speed="3.65" length="4.67" shape="373.15,1113.55 372.55,1114.85 371.82,1115.37 370.96,1115.10 369.99,1114.04"/>
    </edge>
    <edge id=":11199097479_6" function="internal">
        <lane id=":11199097479_6_0" index="0" disallow="tram rail_urban rail rail_electric rail_fast ship" speed="6.28" length="9.04" shape="365.09,1120.00 367.57,1119.53 369.21,1118.39 370.02,1116.55 369.99,1114.04"/>
    </edge>
    <edge id=":11199097479_7" function="internal">
        <lane id=":11199097479_7_0" index="0" disallow="tram rail_urban rail rail_electric rail_fast ship" speed="13.89" length="14.44" shape="365.09,1120.00 379.52,1119.60"/>
    </edge>
    <edge id=":11199097479_8" function="internal">
        <lane id=":11199097479_8_0" index="0" disallow="tram rail_urban rail rail_electric rail_fast ship" speed="3.65" length="1.44" shape="365.09,1120.00 366.32,1120.75"/>
    </edge>
    <edge id=":11199097479_11" function="internal">
        <lane id=":11199097479_11_0" index="0" disallow="tram rail_urban rail rail_electric rail_fast ship" speed="3.65" length="3.23" shape="366.32,1120.75 366.75,1121.53 366.39,1122.34 365.22,1123.19"/>
    </edge>
    <edge id=":11199097482_0" function="internal">
        <lane id=":11199097482_0_0" index="0" disallow="tram rail_urban rail rail_electric rail_fast ship" speed="3.65" length="4.67" shape="346.60,1044.12 345.21,1043.73 344.58,1043.09 344.72,1042.21 345.61,1041.08"/>
    </edge>
    <edge id=":11199097483_0" function="internal">
        <lane id=":11199097483_0_0" index="0" allow="pedestrian delivery bicycle" speed="5.08" length="5.05" shape="403.42,984.68 402.67,983.54 401.72,982.91 400.58,982.79 399.24,983.18"/>
    </edge>
    <edge id=":11199097483_1" function="internal">
        <lane id=":11199097483_1_0" index="0" allow="pedestrian delivery bicycle" speed="5.56" length="9.40" shape="403.42,984.68 399.46,976.15"/>
    </edge>
    <edge id=":11199097483_2" function="internal">
        <lane id=":11199097483_2_0" index="0" allow="pedestrian delivery bicycle" speed="3.65" length="4.67" shape="403.42,984.68 403.64,983.25 404.19,982.55 405.09,982.58 406.32,983.33"/>
    </edge>
    <edge id=":11199097483_3" function="internal">
        <lane id=":11199097483_3_0" index="0" allow="pedestrian delivery bicycle" speed="5.56" length="9.40" shape="402.36,974.81 406.32,983.33"/>
    </edge>
    <edge id=":11199097483_4" function="internal">
        <lane id=":11199097483_4_0" index="0" allow="pedestrian delivery bicycle" speed="5.56" length="10.22" shape="402.36,974.81 403.17,977.49 402.92,979.78 401.61,981.68 399.24,983.18"/>
    </edge>
    <edge id=":11199097483_5" function="internal">
        <lane id=":11199097483_5_0" index="0" allow="pedestrian delivery bicycle" speed="3.65" length="4.67" shape="402.36,974.81 402.14,976.23 401.58,976.93 400.69,976.90 399.46,976.15"/>
    </edge>
    <edge id=":11199097483_6" function="internal">
        <lane id=":11199097483_6_0" index="0" allow="pedestrian delivery bicycle" speed="5.03" length="5.01" shape="397.93,980.26 399.09,979.53 399.73,978.59 399.85,977.47 399.46,976.15"/>
    </edge>
    <edge id=":11199097483_7" function="internal">
        <lane id=":11199097483_7_0" index="0" allow="pedestrian delivery bicycle" speed="5.56" length="10.16" shape="397.93,980.26 400.61,979.48 402.91,979.73 404.81,981.01 406.32,983.33"/>
    </edge>
    <edge id=":11199097483_8" function="internal">
        <lane id=":11199097483_8_0" index="0" allow="pedestrian delivery bicycle" speed="3.65" length="4.67" shape="397.93,980.26 399.35,980.50 400.04,981.06 400.00,981.96 399.24,983.18"/>
    </edge>
    <edge id=":11199097484_0" function="internal">
        <lane id=":11199097484_0_0" index="0" allow="pedestrian delivery bicycle" speed="3.65" length="4.67" shape="387.78,988.34 386.35,988.10 385.66,987.53 385.70,986.64 386.46,985.42"/>
    </edge>
    <edge id=":11199097487_0" function="internal">
        <lane id=":11199097487_0_0" index="0" disallow="tram rail_urban rail rail_electric rail_fast ship" speed="3.65" length="4.67" shape="347.11,948.87 348.54,948.64 349.38,948.95 349.63,949.81 349.29,951.21"/>
    </edge>
    <edge id=":11199110359_0" function="internal">
        <lane id=":11199110359_0_0" index="0" allow="pedestrian delivery bicycle" speed="5.56" length="5.56" shape="593.92,1057.21 593.39,1056.14 592.50,1055.26 591.24,1054.58 589.63,1054.09"/>
    </edge>
    <edge id=":11199110359_1" function="internal">
        <lane id=":11199110359_1_0" index="0" allow="pedestrian delivery bicycle" speed="5.56" length="8.75" shape="593.92,1057.21 593.27,1054.73 593.13,1052.95 593.41,1051.16 594.04,1048.65"/>
    </edge>
    <edge id=":11199110359_2" function="internal">
        <lane id=":11199110359_2_0" index="0" allow="pedestrian delivery bicycle" speed="3.65" length="4.67" shape="593.92,1057.21 594.34,1055.83 594.99,1055.22 595.87,1055.37 596.99,1056.29"/>
    </edge>
    <edge id=":11199110359_3" function="internal">
        <lane id=":11199110359_3_0" index="0" allow="pedestrian delivery bicycle" speed="5.56" length="7.02" shape="597.14,1049.42 596.63,1051.44 596.38,1052.87 596.48,1054.30 596.99,1056.29"/>
    </edge>
    <edge id=":11199110359_4" function="internal">
        <lane id=":11199110359_4_0" index="0" allow="pedestrian delivery bicycle" speed="5.56" length="10.02" shape="597.14,1049.42 596.12,1051.96 594.52,1053.58 592.36,1054.29 589.63,1054.09"/>
    </edge>
    <edge id=":11199110359_5" function="internal">
        <lane id=":11199110359_5_0" index="0" allow="pedestrian delivery bicycle" speed="3.65" length="4.67" shape="597.14,1049.42 596.08,1050.39 595.21,1050.59 594.53,1050.01 594.04,1048.65"/>
    </edge>
    <edge id=":11199110359_6" function="internal">
        <lane id=":11199110359_6_0" index="0" allow="pedestrian delivery bicycle" speed="5.07" length="4.97" shape="590.32,1050.96 591.67,1051.06 592.74,1050.71 593.53,1049.91 594.04,1048.65"/>
    </edge>
    <edge id=":11199110359_7" function="internal">
        <lane id=":11199110359_7_0" index="0" allow="pedestrian delivery bicycle" speed="5.56" length="8.96" shape="590.32,1050.96 592.77,1051.74 594.70,1052.89 596.10,1054.40 596.99,1056.29"/>
    </edge>
    <edge id=":11199110359_8" function="internal">
        <lane id=":11199110359_8_0" index="0" allow="pedestrian delivery bicycle" speed="3.65" length="4.67" shape="590.32,1050.96 591.32,1052.00 591.54,1052.87 590.97,1053.56 589.63,1054.09"/>
    </edge>
    <edge id=":11199110365_0" function="internal">
        <lane id=":11199110365_0_0" index="0" allow="pedestrian delivery bicycle" speed="5.56" length="0.73" shape="579.71,1030.41 579.50,1030.46 579.36,1030.51 579.23,1030.58 579.06,1030.71"/>
    </edge>
    <edge id=":11199110365_1" function="internal">
        <lane id=":11199110365_1_0" index="0" allow="pedestrian delivery bicycle" speed="5.56" length="2.20" shape="577.09,1028.19 577.61,1027.80 577.99,1027.57 578.42,1027.42 579.05,1027.28"/>
    </edge>
    <edge id=":11199110370_0" function="internal">
        <lane id=":11199110370_0_0" index="0" disallow="tram rail_urban rail rail_electric rail_fast ship" speed="8.29" length="9.92" shape="494.66,927.71 492.60,926.00 490.40,925.01 488.08,924.74 485.62,925.18"/>
    </edge>
    <edge id=":11199110370_1" function="internal">
        <lane id=":11199110370_1_0" index="0" disallow="tram rail_urban rail rail_electric rail_fast ship" speed="13.89" length="14.62" shape="494.66,927.71 492.34,924.87 490.50,921.77 488.97,918.47 487.59,915.03"/>
    </edge>
    <edge id=":11199110370_2" function="internal">
        <lane id=":11199110370_2_0" index="0" disallow="tram rail_urban rail rail_electric rail_fast ship" speed="3.69" length="1.49" shape="494.66,927.71 494.76,926.22"/>
    </edge>
    <edge id=":11199110370_9" function="internal">
        <lane id=":11199110370_9_0" index="0" disallow="tram rail_urban rail rail_electric rail_fast ship" speed="3.69" length="3.33" shape="494.76,926.22 495.27,925.46 496.19,925.40 497.52,926.06"/>
    </edge>
    <edge id=":11199110370_3" function="internal">
        <lane id=":11199110370_3_0" index="0" disallow="tram rail_urban rail rail_electric rail_fast ship" speed="13.89" length="14.61" shape="490.40,913.42 491.78,916.85 493.33,920.14 495.19,923.22 497.52,926.06"/>
    </edge>
    <edge id=":11199110370_4" function="internal">
        <lane id=":11199110370_4_0" index="0" disallow="tram rail_urban rail rail_electric rail_fast ship" speed="7.96" length="4.40" shape="490.40,913.42 491.42,917.57 491.41,917.69"/>
    </edge>
    <edge id=":11199110370_5" function="internal">
        <lane id=":11199110370_5_0" index="0" disallow="tram rail_urban rail rail_electric rail_fast ship" speed="3.66" length="1.46" shape="490.40,913.42 490.30,914.87"/>
    </edge>
    <edge id=":11199110370_10" function="internal">