<?xml version="1.0" encoding="UTF-8"?>

<!-- generated on 2024-03-16 13:35:23 by Eclipse SUMO netconvert Version 1.19.0
<configuration xmlns:xsi="http://www.w3.org/2001/XMLSchema-instance" xsi:noNamespaceSchemaLocation="http://sumo.dlr.de/xsd/netconvertConfiguration.xsd">

    <input>
        <osm-files value="pattom_zoomed_in.osm"/>
    </input>

    <output>
        <output-file value="pattom_zoomed_in.net.xml"/>
    </output>

    <projection>
        <proj.utm value="true"/>
    </projection>

    <processing>
        <geometry.remove value="true"/>
    </processing>

    <tls_building>
        <tls.discard-simple value="true"/>
    </tls_building>

</configuration>
-->

<net version="1.16" junctionCornerDetail="5" limitTurnSpeed="5.50" xmlns:xsi="http://www.w3.org/2001/XMLSchema-instance" xsi:noNamespaceSchemaLocation="http://sumo.dlr.de/xsd/net_file.xsd">

    <location netOffset="-713229.40,-941771.63" convBoundary="0.00,0.00,871.29,1610.47" origBoundary="76.854193,8.481180,76.969314,8.612263" projParameter="+proj=utm +zone=43 +ellps=WGS84 +datum=WGS84 +units=m +no_defs"/>

    <type id="highway.primary" priority="12" numLanes="2" speed="27.78" disallow="tram rail_urban rail rail_electric rail_fast ship" oneway="0"/>
    <type id="highway.residential" priority="3" numLanes="1" speed="13.89" disallow="tram rail_urban rail rail_electric rail_fast ship" oneway="0"/>
    <type id="highway.secondary" priority="11" numLanes="1" speed="27.78" disallow="tram rail_urban rail rail_electric rail_fast ship" oneway="0"/>
    <type id="highway.service" priority="1" numLanes="1" speed="5.56" allow="pedestrian delivery bicycle" oneway="0"/>

    <edge id=":1016212350_0" function="internal">
        <lane id=":1016212350_0_0" index="0" disallow="tram rail_urban rail rail_electric rail_fast ship" speed="13.89" length="10.77" shape="546.33,433.14 544.22,435.36 542.58,436.76 541.19,438.30 539.85,440.97"/>
        <lane id=":1016212350_0_1" index="1" disallow="tram rail_urban rail rail_electric rail_fast ship" speed="13.89" length="10.77" shape="543.85,431.12 541.56,433.56 539.80,435.13 538.32,436.86 536.87,439.80"/>
    </edge>
    <edge id=":1016212350_2" function="internal">
        <lane id=":1016212350_2_0" index="0" disallow="tram rail_urban rail rail_electric rail_fast ship" speed="20.83" length="10.86" shape="538.55,429.18 538.53,432.24 538.42,434.49 537.95,436.73 536.87,439.80"/>
    </edge>
    <edge id=":11187780370_0" function="internal">
        <lane id=":11187780370_0_0" index="0" disallow="tram rail_urban rail rail_electric rail_fast ship" speed="6.69" length="7.13" shape="576.81,401.89 578.06,402.03 579.46,401.53 581.02,400.39 582.72,398.62"/>
    </edge>
    <edge id=":11187780370_1" function="internal">
        <lane id=":11187780370_1_0" index="0" disallow="tram rail_urban rail rail_electric rail_fast ship" speed="27.78" length="10.76" shape="576.81,401.89 586.63,406.27"/>
    </edge>
    <edge id=":11187780370_2" function="internal">
        <lane id=":11187780370_2_0" index="0" disallow="tram rail_urban rail rail_electric rail_fast ship" speed="13.89" length="10.48" shape="576.00,406.71 582.72,398.62"/>
        <lane id=":11187780370_2_1" index="1" disallow="tram rail_urban rail rail_electric rail_fast ship" speed="13.89" length="10.48" shape="578.48,408.73 585.16,400.69"/>
    </edge>
    <edge id=":11187780370_4" function="internal">
        <lane id=":11187780370_4_0" index="0" disallow="tram rail_urban rail rail_electric rail_fast ship" speed="7.23" length="9.26" shape="578.48,408.73 580.38,406.87 582.37,405.85 584.45,405.65 586.63,406.27"/>
    </edge>
    <edge id=":11328540710_0" function="internal">
        <lane id=":11328540710_0_0" index="0" disallow="tram rail_urban rail rail_electric rail_fast ship" speed="27.78" length="7.80" shape="518.30,384.95 523.82,390.46"/>
    </edge>
    <edge id=":11328540710_1" function="internal">
        <lane id=":11328540710_1_0" index="0" allow="pedestrian delivery bicycle" speed="6.44" length="6.78" shape="518.30,384.95 519.47,386.43 520.06,387.95 520.07,389.51 519.51,391.12"/>
    </edge>
    <edge id=":11328540710_2" function="internal">
        <lane id=":11328540710_2_0" index="0" allow="pedestrian delivery bicycle" speed="5.84" length="8.72" shape="516.67,389.64 517.93,388.13 519.54,387.77 521.50,388.54 523.82,390.46"/>
    </edge>
    <edge id=":11328540710_3" function="internal">
        <lane id=":11328540710_3_0" index="0" allow="pedestrian delivery bicycle" speed="3.65" length="4.67" shape="516.67,389.64 517.94,388.94 518.83,388.96 519.36,389.68 519.51,391.12"/>
    </edge>
    <edge id=":11328540713_0" function="internal">
        <lane id=":11328540713_0_0" index="0" allow="pedestrian delivery bicycle" speed="5.56" length="14.55" shape="505.58,425.25 500.66,438.94"/>
    </edge>
    <edge id=":11328540713_1" function="internal">
        <lane id=":11328540713_1_0" index="0" allow="pedestrian delivery bicycle" speed="5.56" length="14.19" shape="505.58,425.25 503.63,428.14 500.83,430.24 497.86,432.26 495.40,434.90"/>
    </edge>
    <edge id=":11328540713_2" function="internal">
        <lane id=":11328540713_2_0" index="0" allow="pedestrian delivery bicycle" speed="3.65" length="4.67" shape="505.58,425.25 504.41,426.10 503.53,426.20 502.91,425.55 502.57,424.15"/>
    </edge>
    <edge id=":11328540713_3" function="internal">
        <lane id=":11328540713_3_0" index="0" allow="pedestrian delivery bicycle" speed="5.56" length="10.52" shape="494.49,430.35 496.63,428.25 498.89,427.42 500.96,426.50 502.57,424.15"/>
    </edge>
    <edge id=":11328540713_4" function="internal">
        <lane id=":11328540713_4_0" index="0" allow="pedestrian delivery bicycle" speed="5.56" length="14.60" shape="494.49,430.35 497.05,428.81 499.49,430.70 500.97,434.56 500.66,438.94"/>
    </edge>
    <edge id=":11328540713_5" function="internal">
        <lane id=":11328540713_5_0" index="0" allow="pedestrian delivery bicycle" speed="4.17" length="6.78" shape="494.49,430.35 496.42,431.14 497.22,432.17 496.87,433.42 495.40,434.90"/>
    </edge>
    <edge id=":11328540713_6" function="internal">
        <lane id=":11328540713_6_0" index="0" allow="pedestrian delivery bicycle" speed="5.56" length="15.46" shape="498.01,436.86 499.79,431.29 499.95,429.10 498.48,430.31 495.40,434.90"/>
    </edge>
    <edge id=":11328540713_7" function="internal">
        <lane id=":11328540713_7_0" index="0" allow="pedestrian delivery bicycle" speed="5.56" length="13.51" shape="498.01,436.86 502.57,424.15"/>
    </edge>
    <edge id=":11328540713_8" function="internal">
        <lane id=":11328540713_8_0" index="0" allow="pedestrian delivery bicycle" speed="3.72" length="4.93" shape="498.01,436.86 499.45,436.38 500.38,436.57 500.78,437.42 500.66,438.94"/>
    </edge>
    <edge id=":11328540717_0" function="internal">
        <lane id=":11328540717_0_0" index="0" allow="pedestrian delivery bicycle" speed="3.35" length="3.31" shape="495.27,435.09 497.94,437.05"/>
    </edge>
    <edge id=":11328540717_1" function="internal">
        <lane id=":11328540717_1_0" index="0" allow="pedestrian delivery bicycle" speed="5.56" length="2.39" shape="491.84,435.65 491.90,434.94 491.99,434.46 492.19,434.01 492.55,433.41"/>
    </edge>
    <edge id=":2392636380_0" function="internal">
        <lane id=":2392636380_0_0" index="0" disallow="tram rail_urban rail rail_electric rail_fast ship" speed="3.65" length="4.67" shape="843.10,529.97 844.50,529.61 845.36,529.84 845.69,530.67 845.49,532.10"/>
    </edge>
    <edge id=":2437131828_0" function="internal">
        <lane id=":2437131828_0_0" index="0" disallow="tram rail_urban rail rail_electric rail_fast ship" speed="27.78" length="21.98" shape="556.47,383.84 535.41,377.52"/>
    </edge>
    <edge id=":2437131828_1" function="internal">
        <lane id=":2437131828_1_0" index="0" disallow="tram rail_urban rail rail_electric rail_fast ship" speed="27.78" length="22.06" shape="557.27,380.26 552.44,380.00 546.30,379.31 540.19,378.40 535.41,377.52"/>
    </edge>
    <edge id=":2437131838_0" function="internal">
        <lane id=":2437131838_0_0" index="0" disallow="tram rail_urban rail rail_electric rail_fast ship" speed="5.59" length="9.34" shape="520.05,353.15 522.56,354.51 524.38,354.47 525.50,353.04 525.92,350.22"/>
    </edge>
    <edge id=":2437131838_1" function="internal">
        <lane id=":2437131838_1_0" index="0" disallow="tram rail_urban rail rail_electric rail_fast ship" speed="8.29" length="13.21" shape="520.05,353.15 522.95,355.75 524.59,358.51 524.98,361.42 524.12,364.48"/>
    </edge>
    <edge id=":2437131838_2" function="internal">
        <lane id=":2437131838_2_0" index="0" disallow="tram rail_urban rail rail_electric rail_fast ship" speed="13.89" length="13.84" shape="521.23,363.10 522.85,359.89 524.34,356.84 525.44,353.71 525.92,350.22"/>
    </edge>
    <edge id=":2437131838_3" function="internal">
        <lane id=":2437131838_3_0" index="0" disallow="tram rail_urban rail rail_electric rail_fast ship" speed="3.65" length="1.28" shape="521.23,363.10 522.32,362.45"/>
    </edge>
    <edge id=":2437131838_4" function="internal">
        <lane id=":2437131838_4_0" index="0" disallow="tram rail_urban rail rail_electric rail_fast ship" speed="3.65" length="3.39" shape="522.32,362.45 522.46,362.36 523.36,362.34 523.91,363.05 524.12,364.48"/>
    </edge>
    <edge id=":2437131842_0" function="internal">
        <lane id=":2437131842_0_0" index="0" disallow="tram rail_urban rail rail_electric rail_fast ship" speed="27.78" length="10.71" shape="511.64,378.98 514.37,380.38 516.48,381.23 518.64,381.96 521.54,383.00"/>
    </edge>
    <edge id=":2437131842_1" function="internal">
        <lane id=":2437131842_1_0" index="0" disallow="tram rail_urban rail rail_electric rail_fast ship" speed="27.78" length="8.80" shape="511.64,378.98 513.83,380.35 515.17,381.53 516.37,382.89 518.15,384.81"/>
    </edge>
    <edge id=":4841296551_0" function="internal">
        <lane id=":4841296551_0_0" index="0" disallow="tram rail_urban rail rail_electric rail_fast ship" speed="13.89" length="20.61" shape="607.39,361.85 593.62,377.25"/>
        <lane id=":4841296551_0_1" index="1" disallow="tram rail_urban rail rail_electric rail_fast ship" speed="13.89" length="20.61" shape="604.96,359.76 591.25,375.10"/>
    </edge>
    <edge id=":4841296551_2" function="internal">
        <lane id=":4841296551_2_0" index="0" disallow="tram rail_urban rail rail_electric rail_fast ship" speed="20.83" length="20.40" shape="604.96,359.76 600.33,364.58 596.17,367.94 592.41,370.34 588.99,372.24"/>
    </edge>
    <edge id=":4841296551_3" function="internal">
        <lane id=":4841296551_3_0" index="0" disallow="tram rail_urban rail rail_electric rail_fast ship" speed="6.03" length="7.89" shape="604.96,359.76 602.99,361.74 601.24,362.83 599.70,363.02 598.38,362.32"/>
    </edge>
    <edge id=":4841296551_4" function="internal">
        <lane id=":4841296551_4_0" index="0" disallow="tram rail_urban rail rail_electric rail_fast ship" speed="9.09" length="18.33" shape="600.58,359.99 600.88,361.77 599.42,364.88 596.21,369.32 591.25,375.10"/>
    </edge>
    <edge id=":4841296551_5" function="internal">
        <lane id=":4841296551_5_0" index="0" disallow="tram rail_urban rail rail_electric rail_fast ship" speed="8.19" length="18.47" shape="600.58,359.99 601.32,362.14 599.63,364.90 595.52,368.26 588.99,372.24"/>
    </edge>
    <edge id=":4841296551_6" function="internal">
        <lane id=":4841296551_6_0" index="0" disallow="tram rail_urban rail rail_electric rail_fast ship" speed="3.65" length="4.67" shape="600.58,359.99 600.90,361.40 600.65,362.26 599.81,362.56 598.38,362.32"/>
    </edge>
    <edge id=":4841296556_0" function="internal">
        <lane id=":4841296556_0_0" index="0" disallow="tram rail_urban rail rail_electric rail_fast ship" speed="3.65" length="4.67" shape="481.19,48.20 481.86,46.93 482.61,46.45 483.45,46.76 484.37,47.88"/>
    </edge>
    <edge id=":538604288_0" function="internal">
        <lane id=":538604288_0_0" index="0" disallow="tram rail_urban rail rail_electric rail_fast ship" speed="5.21" length="6.94" shape="576.85,396.23 575.41,398.16 574.89,399.73 575.29,400.95 576.62,401.82"/>
    </edge>
    <edge id=":538604288_1" function="internal">
        <lane id=":538604288_1_0" index="0" disallow="tram rail_urban rail rail_electric rail_fast ship" speed="13.89" length="13.40" shape="576.85,396.23 568.19,406.35"/>
        <lane id=":538604288_1_1" index="1" disallow="tram rail_urban rail rail_electric rail_fast ship" speed="13.89" length="13.40" shape="574.48,394.08 565.71,404.33"/>
    </edge>
    <edge id=":538604288_3" function="internal">
        <lane id=":538604288_3_0" index="0" disallow="tram rail_urban rail rail_electric rail_fast ship" speed="27.78" length="13.70" shape="563.60,397.57 576.62,401.82"/>
    </edge>
    <edge id=":538604288_4" function="internal">
        <lane id=":538604288_4_0" index="0" disallow="tram rail_urban rail rail_electric rail_fast ship" speed="5.81" length="9.14" shape="563.60,397.57 566.04,398.66 567.21,400.15 567.10,402.04 565.71,404.33"/>
    </edge>
    <edge id=":5702189609_0" function="internal">
        <lane id=":5702189609_0_0" index="0" disallow="tram rail_urban rail rail_electric rail_fast ship" speed="27.78" length="12.82" shape="594.78,398.20 591.85,396.45 589.21,395.02 586.48,393.77 583.29,392.57"/>
    </edge>
    <edge id=":5702189609_1" function="internal">
        <lane id=":5702189609_1_0" index="0" disallow="tram rail_urban rail rail_electric rail_fast ship" speed="6.18" length="9.07" shape="594.78,398.20 592.78,396.56 591.89,394.76 592.12,392.80 593.47,390.69"/>
    </edge>
    <edge id=":5702189609_2" function="internal">
        <lane id=":5702189609_2_0" index="0" disallow="tram rail_urban rail rail_electric rail_fast ship" speed="5.26" length="7.10" shape="582.96,398.33 584.43,396.27 584.98,394.62 584.60,393.39 583.29,392.57"/>
    </edge>
    <edge id=":5702189609_3" function="internal">
        <lane id=":5702189609_3_0" index="0" disallow="tram rail_urban rail rail_electric rail_fast ship" speed="13.89" length="12.56" shape="582.96,398.33 590.94,388.72"/>
        <lane id=":5702189609_3_1" index="1" disallow="tram rail_urban rail rail_electric rail_fast ship" speed="13.89" length="12.56" shape="585.40,400.41 593.47,390.69"/>
    </edge>
    <edge id=":5702489626_0" function="internal">
        <lane id=":5702489626_0_0" index="0" disallow="tram rail_urban rail rail_electric rail_fast ship" speed="20.84" length="9.46" shape="636.44,469.47 635.13,467.18 635.04,465.25 635.21,463.16 634.67,460.42"/>
    </edge>
    <edge id=":5702489626_1" function="internal">
        <lane id=":5702489626_1_0" index="0" disallow="tram rail_urban rail rail_electric rail_fast ship" speed="4.78" length="8.87" shape="632.95,461.48 634.86,464.06 635.79,464.75 635.72,463.53 634.67,460.42"/>
    </edge>
    <edge id=":5702489626_2" function="internal">
        <lane id=":5702489626_2_0" index="0" disallow="tram rail_urban rail rail_electric rail_fast ship" speed="20.84" length="8.39" shape="632.95,461.48 634.49,463.41 635.77,464.54 637.13,465.61 638.87,467.38"/>
    </edge>
    <edge id=":5704443730_0" function="internal">
        <lane id=":5704443730_0_0" index="0" disallow="tram rail_urban rail rail_electric rail_fast ship" speed="6.01" length="7.96" shape="598.90,389.72 597.93,388.53 597.82,386.97 598.58,385.05 600.20,382.76"/>
    </edge>
    <edge id=":5704443730_1" function="internal">
        <lane id=":5704443730_1_0" index="0" disallow="tram rail_urban rail rail_electric rail_fast ship" speed="3.65" length="4.67" shape="598.90,389.72 598.39,388.37 598.53,387.48 599.32,387.07 600.76,387.11"/>
    </edge>
    <edge id=":5704443730_2" function="internal">
        <lane id=":5704443730_2_0" index="0" disallow="tram rail_urban rail rail_electric rail_fast ship" speed="13.89" length="9.35" shape="591.71,387.83 597.74,380.72"/>
        <lane id=":5704443730_2_1" index="1" disallow="tram rail_urban rail rail_electric rail_fast ship" speed="13.89" length="9.35" shape="594.13,389.92 600.20,382.76"/>
    </edge>
    <edge id=":5704443730_4" function="internal">
        <lane id=":5704443730_4_0" index="0" disallow="tram rail_urban rail rail_electric rail_fast ship" speed="6.32" length="7.87" shape="594.13,389.92 596.06,388.00 597.81,386.89 599.38,386.60 600.76,387.11"/>
    </edge>
    <edge id=":5704443733_0" function="internal">
        <lane id=":5704443733_0_0" index="0" disallow="tram rail_urban rail rail_electric rail_fast ship" speed="13.89" length="13.96" shape="658.98,435.46 648.10,426.71"/>
    </edge>
    <edge id=":5704443733_1" function="internal">
        <lane id=":5704443733_1_0" index="0" disallow="tram rail_urban rail rail_electric rail_fast ship" speed="7.80" length="4.23" shape="658.98,435.46 656.14,432.32"/>
    </edge>
    <edge id=":5704443733_2" function="internal">
        <lane id=":5704443733_2_0" index="0" disallow="tram rail_urban rail rail_electric rail_fast ship" speed="3.65" length="1.44" shape="658.98,435.46 658.59,434.07"/>
    </edge>
    <edge id=":5704443733_9" function="internal">
        <lane id=":5704443733_9_0" index="0" disallow="tram rail_urban rail rail_electric rail_fast ship" speed="7.80" length="10.17" shape="656.14,432.32 655.00,429.23 655.55,426.17 657.81,423.15"/>
    </edge>
    <edge id=":5704443733_10" function="internal">
        <lane id=":5704443733_10_0" index="0" disallow="tram rail_urban rail rail_electric rail_fast ship" speed="3.65" length="3.23" shape="658.59,434.07 658.80,433.20 659.63,432.85 661.06,433.02"/>
    </edge>
    <edge id=":5704443733_3" function="internal">
        <lane id=":5704443733_3_0" index="0" disallow="tram rail_urban rail rail_electric rail_fast ship" speed="6.36" length="9.22" shape="660.34,425.15 658.89,427.08 658.52,429.04 659.25,431.02 661.06,433.02"/>
    </edge>
    <edge id=":5704443733_4" function="internal">
        <lane id=":5704443733_4_0" index="0" disallow="tram rail_urban rail rail_electric rail_fast ship" speed="8.33" length="13.62" shape="660.34,425.15 657.22,427.52 654.13,428.57 651.09,428.30 648.10,426.71"/>
    </edge>
    <edge id=":5704443733_5" function="internal">
        <lane id=":5704443733_5_0" index="0" disallow="tram rail_urban rail rail_electric rail_fast ship" speed="3.66" length="4.71" shape="660.34,425.15 658.96,425.60 658.07,425.42 657.69,424.60 657.81,423.15"/>
    </edge>
    <edge id=":5704443733_6" function="internal">
        <lane id=":5704443733_6_0" index="0" disallow="tram rail_urban rail rail_electric rail_fast ship" speed="6.76" length="8.66" shape="650.03,424.16 651.93,425.17 653.86,425.34 655.82,424.67 657.81,423.15"/>
    </edge>
    <edge id=":5704443733_7" function="internal">
        <lane id=":5704443733_7_0" index="0" disallow="tram rail_urban rail rail_electric rail_fast ship" speed="13.89" length="14.15" shape="650.03,424.16 661.06,433.02"/>
    </edge>
    <edge id=":5704443733_8" function="internal">
        <lane id=":5704443733_8_0" index="0" disallow="tram rail_urban rail rail_electric rail_fast ship" speed="3.65" length="1.44" shape="650.03,424.16 650.50,425.52"/>
    </edge>
    <edge id=":5704443733_11" function="internal">
        <lane id=":5704443733_11_0" index="0" disallow="tram rail_urban rail rail_electric rail_fast ship" speed="3.65" length="3.23" shape="650.50,425.52 650.34,426.40 649.54,426.80 648.10,426.71"/>
    </edge>
    <edge id=":6950414916_0" function="internal">
        <lane id=":6950414916_0_0" index="0" disallow="tram rail_urban rail rail_electric rail_fast ship" speed="7.02" length="7.40" shape="583.10,392.50 581.90,392.44 580.47,393.02 578.84,394.23 576.99,396.08"/>
    </edge>
    <edge id=":6950414916_1" function="internal">
        <lane id=":6950414916_1_0" index="0" disallow="tram rail_urban rail rail_electric rail_fast ship" speed="27.78" length="10.92" shape="583.10,392.50 572.75,389.03"/>
    </edge>
    <edge id=":6950414916_2" function="internal">
        <lane id=":6950414916_2_0" index="0" disallow="tram rail_urban rail rail_electric rail_fast ship" speed="13.89" length="10.72" shape="584.04,387.92 576.99,396.08"/>
        <lane id=":6950414916_2_1" index="1" disallow="tram rail_urban rail rail_electric rail_fast ship" speed="13.89" length="10.72" shape="581.58,385.87 574.61,393.94"/>
    </edge>
    <edge id=":6950414916_4" function="internal">
        <lane id=":6950414916_4_0" index="0" disallow="tram rail_urban rail rail_electric rail_fast ship" speed="7.96" length="10.01" shape="581.58,385.87 579.55,387.86 577.40,389.05 575.13,389.44 572.75,389.03"/>
    </edge>
    <edge id=":6970414710_0" function="internal">
        <lane id=":6970414710_0_0" index="0" allow="pedestrian delivery bicycle" speed="3.65" length="4.67" shape="341.01,547.16 339.93,548.11 339.05,548.28 338.38,547.69 337.92,546.32"/>
    </edge>
    <edge id=":6970414715_0" function="internal">
        <lane id=":6970414715_0_0" index="0" disallow="tram rail_urban rail rail_electric rail_fast ship" speed="13.89" length="9.40" shape="525.21,488.95 523.99,498.15"/>
        <lane id=":6970414715_0_1" index="1" disallow="tram rail_urban rail rail_electric rail_fast ship" speed="13.89" length="9.40" shape="522.05,488.43 520.80,497.88"/>
    </edge>
    <edge id=":6970414715_2" function="internal">
        <lane id=":6970414715_2_0" index="0" allow="pedestrian delivery bicycle" speed="5.87" length="8.54" shape="522.05,488.43 521.31,491.28 520.21,493.07 518.74,493.78 516.92,493.43"/>
    </edge>
    <edge id=":6970414715_3" function="internal">
        <lane id=":6970414715_3_0" index="0" allow="pedestrian delivery bicycle" speed="7.15" length="8.31" shape="518.21,490.51 519.54,491.48 520.41,493.03 520.83,495.16 520.80,497.88"/>
    </edge>
    <edge id=":6970414715_4" function="internal">
        <lane id=":6970414715_4_0" index="0" allow="pedestrian delivery bicycle" speed="3.65" length="4.67" shape="518.21,490.51 518.99,491.72 519.03,492.62 518.34,493.19 516.92,493.43"/>
    </edge>
    <edge id=":7494060154_0" function="internal">
        <lane id=":7494060154_0_0" index="0" disallow="tram rail_urban rail rail_electric rail_fast ship" speed="6.21" length="7.83" shape="618.03,366.34 617.25,365.10 617.27,363.53 618.08,361.64 619.69,359.41"/>
    </edge>
    <edge id=":7494060154_1" function="internal">
        <lane id=":7494060154_1_0" index="0" disallow="tram rail_urban rail rail_electric rail_fast ship" speed="3.65" length="4.67" shape="618.03,366.34 617.68,364.94 617.93,364.08 618.77,363.76 620.19,363.98"/>
    </edge>
    <edge id=":7494060154_2" function="internal">
        <lane id=":7494060154_2_0" index="0" disallow="tram rail_urban rail rail_electric rail_fast ship" speed="13.89" length="9.41" shape="611.20,364.57 617.23,357.36"/>
        <lane id=":7494060154_2_1" index="1" disallow="tram rail_urban rail rail_electric rail_fast ship" speed="13.89" length="9.41" shape="613.65,366.63 619.69,359.41"/>
    </edge>
    <edge id=":7494060154_4" function="internal">
        <lane id=":7494060154_4_0" index="0" disallow="tram rail_urban rail rail_electric rail_fast ship" speed="6.03" length="7.89" shape="613.65,366.63 615.59,364.63 617.33,363.52 618.86,363.31 620.19,363.98"/>
    </edge>
    <edge id=":7494060159_0" function="internal">
        <lane id=":7494060159_0_0" index="0" disallow="tram rail_urban rail rail_electric rail_fast ship" speed="13.89" length="14.41" shape="679.45,399.91 677.60,403.07 675.82,406.14 673.96,409.16 671.87,412.15"/>
    </edge>
    <edge id=":7494060159_1" function="internal">
        <lane id=":7494060159_1_0" index="0" disallow="tram rail_urban rail rail_electric rail_fast ship" speed="7.90" length="3.98" shape="679.45,399.91 676.92,402.99"/>
    </edge>
    <edge id=":7494060159_2" function="internal">
        <lane id=":7494060159_2_0" index="0" disallow="tram rail_urban rail rail_electric rail_fast ship" speed="3.65" length="1.44" shape="679.45,399.91 678.14,400.52"/>
    </edge>
    <edge id=":7494060159_9" function="internal">
        <lane id=":7494060159_9_0" index="0" disallow="tram rail_urban rail rail_electric rail_fast ship" speed="7.90" length="10.43" shape="676.92,402.99 674.05,404.45 670.83,404.30 667.26,402.54"/>
    </edge>
    <edge id=":7494060159_10" function="internal">
        <lane id=":7494060159_10_0" index="0" disallow="tram rail_urban rail rail_electric rail_fast ship" speed="3.65" length="3.23" shape="678.14,400.52 677.25,400.45 676.78,399.69 676.71,398.25"/>
    </edge>
    <edge id=":7494060159_3" function="internal">
        <lane id=":7494060159_3_0" index="0" disallow="tram rail_urban rail rail_electric rail_fast ship" speed="6.39" length="9.04" shape="669.07,399.90 671.31,401.01 673.33,401.10 675.13,400.18 676.71,398.25"/>
    </edge>
    <edge id=":7494060159_4" function="internal">
        <lane id=":7494060159_4_0" index="0" disallow="tram rail_urban rail rail_electric rail_fast ship" speed="7.95" length="14.47" shape="669.07,399.90 672.22,402.71 673.74,405.69 673.62,408.84 671.87,412.15"/>
    </edge>
    <edge id=":7494060159_5" function="internal">
        <lane id=":7494060159_5_0" index="0" disallow="tram rail_urban rail rail_electric rail_fast ship" speed="3.65" length="4.67" shape="669.07,399.90 669.61,401.24 669.48,402.12 668.70,402.56 667.26,402.54"/>
    </edge>
    <edge id=":7494060159_6" function="internal">
        <lane id=":7494060159_6_0" index="0" disallow="tram rail_urban rail rail_electric rail_fast ship" speed="6.52" length="9.40" shape="669.11,410.49 670.24,408.34 670.31,406.30 669.31,404.37 667.26,402.54"/>
    </edge>
    <edge id=":7494060159_7" function="internal">
        <lane id=":7494060159_7_0" index="0" disallow="tram rail_urban rail rail_electric rail_fast ship" speed="13.89" length="14.41" shape="669.11,410.49 671.21,407.49 673.07,404.48 674.86,401.41 676.71,398.25"/>
    </edge>
    <edge id=":7494060159_8" function="internal">
        <lane id=":7494060159_8_0" index="0" disallow="tram rail_urban rail rail_electric rail_fast ship" speed="3.66" length="1.45" shape="669.11,410.49 670.43,409.87"/>
    </edge>
    <edge id=":7494060159_11" function="internal">
        <lane id=":7494060159_11_0" index="0" disallow="tram rail_urban rail rail_electric rail_fast ship" speed="3.66" length="3.25" shape="670.43,409.87 671.32,409.94 671.80,410.70 671.87,412.15"/>
    </edge>
    <edge id=":7494136352_0" function="internal">
        <lane id=":7494136352_0_0" index="0" disallow="tram rail_urban rail rail_electric rail_fast ship" speed="3.65" length="4.67" shape="832.12,332.35 833.56,332.48 834.29,333.00 834.31,333.89 833.63,335.17"/>
    </edge>
    <edge id=":7494138085_0" function="internal">
        <lane id=":7494138085_0_0" index="0" disallow="tram rail_urban rail rail_electric rail_fast ship" speed="3.65" length="4.67" shape="762.78,449.09 763.81,450.09 764.06,450.95 763.52,451.67 762.19,452.23"/>
    </edge>
    <edge id=":7591234329_0" function="internal">
        <lane id=":7591234329_0_0" index="0" disallow="tram rail_urban rail rail_electric rail_fast ship" speed="27.78" length="9.85" shape="523.00,374.81 520.15,374.18 518.22,373.64 516.36,372.90 513.73,371.64"/>
    </edge>
    <edge id=":7591234329_1" function="internal">
        <lane id=":7591234329_1_0" index="0" disallow="tram rail_urban rail rail_electric rail_fast ship" speed="5.89" length="8.45" shape="523.00,374.81 520.21,373.94 518.48,372.76 517.80,371.29 518.19,369.52"/>
    </edge>
    <edge id=":7591234329_2" function="internal">
        <lane id=":7591234329_2_0" index="0" disallow="tram rail_urban rail rail_electric rail_fast ship" speed="6.25" length="8.31" shape="521.08,370.89 519.99,372.26 518.40,372.84 516.32,372.63 513.73,371.64"/>
    </edge>
    <edge id=":7591234329_3" function="internal">
        <lane id=":7591234329_3_0" index="0" disallow="tram rail_urban rail rail_electric rail_fast ship" speed="3.65" length="4.67" shape="521.08,370.89 519.84,371.63 518.95,371.65 518.39,370.94 518.19,369.52"/>
    </edge>
    <edge id=":8864853058_0" function="internal">
        <lane id=":8864853058_0_0" index="0" allow="pedestrian delivery bicycle" speed="5.56" length="10.16" shape="496.24,491.07 495.87,487.94 495.04,485.45 493.75,483.61 492.00,482.40"/>
    </edge>
    <edge id=":8864853058_1" function="internal">
        <lane id=":8864853058_1_0" index="0" allow="pedestrian delivery bicycle" speed="5.56" length="13.61" shape="496.24,491.07 496.57,486.72 497.98,484.13 500.46,483.30 504.02,484.23"/>
    </edge>
    <edge id=":8864853058_2" function="internal">
        <lane id=":8864853058_2_0" index="0" allow="pedestrian delivery bicycle" speed="3.70" length="4.87" shape="496.24,491.07 496.63,489.62 497.29,488.96 498.21,489.09 499.40,490.00"/>
    </edge>
    <edge id=":8864853058_3" function="internal">
        <lane id=":8864853058_3_0" index="0" allow="pedestrian delivery bicycle" speed="4.73" length="5.76" shape="502.73,487.15 501.21,486.75 500.15,487.09 499.55,488.18 499.40,490.00"/>
    </edge>
    <edge id=":8864853058_4" function="internal">
        <lane id=":8864853058_4_0" index="0" allow="pedestrian delivery bicycle" speed="5.56" length="11.74" shape="502.73,487.15 492.00,482.40"/>
    </edge>
    <edge id=":8864853058_5" function="internal">
        <lane id=":8864853058_5_0" index="0" allow="pedestrian delivery bicycle" speed="3.65" length="4.67" shape="502.73,487.15 501.95,485.94 501.91,485.04 502.60,484.47 504.02,484.23"/>
    </edge>
    <edge id=":8864853058_6" function="internal">
        <lane id=":8864853058_6_0" index="0" allow="pedestrian delivery bicycle" speed="5.56" length="11.74" shape="493.29,479.48 504.02,484.23"/>
    </edge>
    <edge id=":8864853058_7" function="internal">