<?xml version="1.0" encoding="UTF-8"?>

<!-- generated on 2024-04-01 20:46:44 by Eclipse SUMO netconvert Version 1.19.0
<configuration xmlns:xsi="http://www.w3.org/2001/XMLSchema-instance" xsi:noNamespaceSchemaLocation="http://sumo.dlr.de/xsd/netconvertConfiguration.xsd">

    <input>
        <osm-files value="pattom_map.osm"/>
    </input>

    <output>
        <output-file value="pattom_map.net.xml"/>
    </output>

    <projection>
        <proj.utm value="true"/>
    </projection>

    <processing>
        <geometry.remove value="true"/>
        <roundabouts.guess value="true"/>
    </processing>

    <tls_building>
        <tls.discard-simple value="true"/>
    </tls_building>

    <ramp_guessing>
        <ramps.guess value="true"/>
    </ramp_guessing>

</configuration>
-->

<net version="1.16" junctionCornerDetail="5" limitTurnSpeed="5.50" xmlns:xsi="http://www.w3.org/2001/XMLSchema-instance" xsi:noNamespaceSchemaLocation="http://sumo.dlr.de/xsd/net_file.xsd">

    <location netOffset="-712984.16,-941583.05" convBoundary="0.00,0.00,1633.05,2345.13" origBoundary="76.854193,8.481180,76.969314,8.612263" projParameter="+proj=utm +zone=43 +ellps=WGS84 +datum=WGS84 +units=m +no_defs"/>

    <type id="highway.footway" priority="1" numLanes="1" speed="2.78" allow="pedestrian" oneway="1" width="2.00"/>
    <type id="highway.primary" priority="12" numLanes="2" speed="27.78" disallow="tram rail_urban rail rail_electric rail_fast ship" oneway="0"/>
    <type id="highway.residential" priority="3" numLanes="1" speed="13.89" disallow="tram rail_urban rail rail_electric rail_fast ship" oneway="0"/>
    <type id="highway.secondary" priority="11" numLanes="1" speed="27.78" disallow="tram rail_urban rail rail_electric rail_fast ship" oneway="0"/>
    <type id="highway.secondary_link" priority="6" numLanes="1" speed="22.22" disallow="tram rail_urban rail rail_electric rail_fast ship" oneway="0"/>
    <type id="highway.service" priority="1" numLanes="1" speed="5.56" allow="pedestrian delivery bicycle" oneway="0"/>
    <type id="highway.tertiary" priority="10" numLanes="1" speed="22.22" disallow="tram rail_urban rail rail_electric rail_fast ship" oneway="0"/>

    <edge id=":1016212350_0" function="internal">
        <lane id=":1016212350_0_0" index="0" disallow="tram rail_urban rail rail_electric rail_fast ship" speed="13.89" length="3.68" shape="790.01,628.11 789.39,628.86 788.90,629.34 788.48,629.86 788.06,630.72"/>
        <lane id=":1016212350_0_1" index="1" disallow="tram rail_urban rail rail_electric rail_fast ship" speed="13.89" length="3.68" shape="787.42,626.24 786.66,627.18 786.08,627.80 785.60,628.47 785.09,629.55"/>
    </edge>
    <edge id=":1016212350_2" function="internal">
        <lane id=":1016212350_2_0" index="0" disallow="tram rail_urban rail rail_electric rail_fast ship" speed="18.81" length="6.06" shape="783.71,622.60 783.59,624.38 783.30,625.57 782.81,626.72 782.11,628.38"/>
    </edge>
    <edge id=":10297156783_0" function="internal">
        <lane id=":10297156783_0_0" index="0" disallow="tram rail_urban rail rail_electric rail_fast ship" speed="13.89" length="13.56" shape="171.10,814.63 157.85,817.51"/>
    </edge>
    <edge id=":10297156783_1" function="internal">
        <lane id=":10297156783_1_0" index="0" disallow="tram rail_urban rail rail_electric rail_fast ship" speed="7.77" length="3.19" shape="171.10,814.63 167.91,814.59"/>
    </edge>
    <edge id=":10297156783_2" function="internal">
        <lane id=":10297156783_2_0" index="0" disallow="tram rail_urban rail rail_electric rail_fast ship" speed="3.65" length="1.44" shape="171.10,814.63 169.80,813.99"/>
    </edge>
    <edge id=":10297156783_9" function="internal">
        <lane id=":10297156783_9_0" index="0" disallow="tram rail_urban rail rail_electric rail_fast ship" speed="7.77" length="11.58" shape="167.91,814.59 166.97,814.58 164.03,813.18 162.30,810.43 161.76,806.34"/>
    </edge>
    <edge id=":10297156783_10" function="internal">
        <lane id=":10297156783_10_0" index="0" disallow="tram rail_urban rail rail_electric rail_fast ship" speed="3.65" length="3.23" shape="169.80,813.99 169.30,813.25 169.60,812.41 170.68,811.46"/>
    </edge>
    <edge id=":10297156783_3" function="internal">
        <lane id=":10297156783_3_0" index="0" disallow="tram rail_urban rail rail_electric rail_fast ship" speed="6.22" length="9.05" shape="164.96,806.37 165.29,808.88 166.35,810.57 168.15,811.43 170.68,811.46"/>
    </edge>
    <edge id=":10297156783_4" function="internal">
        <lane id=":10297156783_4_0" index="0" disallow="tram rail_urban rail rail_electric rail_fast ship" speed="8.75" length="14.40" shape="164.96,806.37 164.47,810.72 163.12,814.02 160.91,816.28 157.85,817.51"/>
    </edge>
    <edge id=":10297156783_5" function="internal">
        <lane id=":10297156783_5_0" index="0" disallow="tram rail_urban rail rail_electric rail_fast ship" speed="3.65" length="4.67" shape="164.96,806.37 164.14,807.56 163.34,807.95 162.54,807.55 161.76,806.34"/>
    </edge>
    <edge id=":10297156783_6" function="internal">
        <lane id=":10297156783_6_0" index="0" disallow="tram rail_urban rail rail_electric rail_fast ship" speed="7.51" length="10.36" shape="156.80,814.46 158.93,813.58 160.47,811.93 161.41,809.52 161.76,806.34"/>
    </edge>
    <edge id=":10297156783_7" function="internal">
        <lane id=":10297156783_7_0" index="0" disallow="tram rail_urban rail rail_electric rail_fast ship" speed="13.89" length="14.20" shape="156.80,814.46 170.68,811.46"/>
    </edge>
    <edge id=":10297156783_8" function="internal">
        <lane id=":10297156783_8_0" index="0" disallow="tram rail_urban rail rail_electric rail_fast ship" speed="3.66" length="1.45" shape="156.80,814.46 158.21,814.83"/>
    </edge>
    <edge id=":10297156783_11" function="internal">
        <lane id=":10297156783_11_0" index="0" disallow="tram rail_urban rail rail_electric rail_fast ship" speed="3.66" length="3.26" shape="158.21,814.83 158.85,815.46 158.73,816.35 157.85,817.51"/>
    </edge>
    <edge id=":10297156787_0" function="internal">
        <lane id=":10297156787_0_0" index="0" disallow="tram rail_urban rail rail_electric rail_fast ship" speed="3.65" length="4.67" shape="262.00,659.06 262.83,657.88 263.64,657.50 264.43,657.92 265.20,659.14"/>
    </edge>
    <edge id=":10297156789_0" function="internal">
        <lane id=":10297156789_0_0" index="0" disallow="tram rail_urban rail rail_electric rail_fast ship" speed="6.51" length="8.80" shape="260.51,735.07 260.05,732.71 258.94,731.04 257.20,730.06 254.83,729.76"/>
    </edge>
    <edge id=":10297156789_1" function="internal">
        <lane id=":10297156789_1_0" index="0" disallow="tram rail_urban rail rail_electric rail_fast ship" speed="13.89" length="13.98" shape="260.51,735.07 260.33,721.09"/>
    </edge>
    <edge id=":10297156789_2" function="internal">
        <lane id=":10297156789_2_0" index="0" disallow="tram rail_urban rail rail_electric rail_fast ship" speed="3.65" length="1.44" shape="260.51,735.07 261.24,733.83"/>
    </edge>
    <edge id=":10297156789_9" function="internal">
        <lane id=":10297156789_9_0" index="0" disallow="tram rail_urban rail rail_electric rail_fast ship" speed="3.65" length="3.23" shape="261.24,733.83 262.02,733.39 262.84,733.74 263.70,734.90"/>
    </edge>
    <edge id=":10297156789_3" function="internal">
        <lane id=":10297156789_3_0" index="0" disallow="tram rail_urban rail rail_electric rail_fast ship" speed="13.89" length="13.73" shape="263.53,721.17 263.70,734.90"/>
    </edge>
    <edge id=":10297156789_4" function="internal">
        <lane id=":10297156789_4_0" index="0" disallow="tram rail_urban rail rail_electric rail_fast ship" speed="8.02" length="3.76" shape="263.53,721.17 262.90,724.88"/>
    </edge>
    <edge id=":10297156789_5" function="internal">
        <lane id=":10297156789_5_0" index="0" disallow="tram rail_urban rail rail_electric rail_fast ship" speed="3.65" length="1.44" shape="263.53,721.17 262.70,722.35"/>
    </edge>
    <edge id=":10297156789_10" function="internal">
        <lane id=":10297156789_10_0" index="0" disallow="tram rail_urban rail rail_electric rail_fast ship" speed="8.02" length="10.05" shape="262.90,724.88 261.24,727.54 258.55,729.17 254.83,729.76"/>
    </edge>
    <edge id=":10297156789_11" function="internal">
        <lane id=":10297156789_11_0" index="0" disallow="tram rail_urban rail rail_electric rail_fast ship" speed="3.65" length="3.23" shape="262.70,722.35 261.89,722.73 261.10,722.31 260.33,721.09"/>
    </edge>
    <edge id=":10297156789_6" function="internal">
        <lane id=":10297156789_6_0" index="0" disallow="tram rail_urban rail rail_electric rail_fast ship" speed="6.53" length="8.81" shape="254.77,726.56 257.15,726.18 258.87,725.15 259.93,723.45 260.33,721.09"/>
    </edge>
    <edge id=":10297156789_7" function="internal">
        <lane id=":10297156789_7_0" index="0" disallow="tram rail_urban rail rail_electric rail_fast ship" speed="8.01" length="13.82" shape="254.77,726.56 258.51,727.03 261.25,728.58 262.98,731.20 263.70,734.90"/>
    </edge>
    <edge id=":10297156789_8" function="internal">
        <lane id=":10297156789_8_0" index="0" disallow="tram rail_urban rail rail_electric rail_fast ship" speed="3.65" length="4.67" shape="254.77,726.56 255.99,727.34 256.40,728.13 256.01,728.94 254.83,729.76"/>
    </edge>
    <edge id=":10308420008_0" function="internal">
        <lane id=":10308420008_0_0" index="0" disallow="tram rail_urban rail rail_electric rail_fast ship" speed="3.65" length="4.67" shape="1028.05,825.42 1026.84,824.64 1026.43,823.84 1026.82,823.04 1028.01,822.22"/>
    </edge>
    <edge id=":10308420013_0" function="internal">
        <lane id=":10308420013_0_0" index="0" disallow="tram rail_urban rail rail_electric rail_fast ship" speed="6.14" length="9.06" shape="1033.54,764.74 1032.50,762.42 1030.99,761.14 1029.03,760.90 1026.61,761.70"/>
    </edge>
    <edge id=":10308420013_1" function="internal">
        <lane id=":10308420013_1_0" index="0" disallow="tram rail_urban rail rail_electric rail_fast ship" speed="8.74" length="14.52" shape="1033.54,764.74 1032.88,760.66 1033.41,757.23 1035.13,754.43 1038.05,752.29"/>
    </edge>
    <edge id=":10308420013_2" function="internal">
        <lane id=":10308420013_2_0" index="0" disallow="tram rail_urban rail rail_electric rail_fast ship" speed="3.65" length="4.67" shape="1033.54,764.74 1033.98,763.37 1034.64,762.77 1035.52,762.93 1036.62,763.86"/>
    </edge>
    <edge id=":10308420013_3" function="internal">
        <lane id=":10308420013_3_0" index="0" disallow="tram rail_urban rail rail_electric rail_fast ship" speed="7.37" length="10.08" shape="1039.53,755.13 1037.58,756.59 1036.44,758.53 1036.12,760.96 1036.62,763.86"/>
    </edge>
    <edge id=":10308420013_4" function="internal">
        <lane id=":10308420013_4_0" index="0" disallow="tram rail_urban rail rail_electric rail_fast ship" speed="13.89" length="14.50" shape="1039.53,755.13 1026.61,761.70"/>
    </edge>
    <edge id=":10308420013_5" function="internal">
        <lane id=":10308420013_5_0" index="0" disallow="tram rail_urban rail rail_electric rail_fast ship" speed="3.65" length="1.44" shape="1039.53,755.13 1038.09,754.97"/>
    </edge>
    <edge id=":10308420013_9" function="internal">
        <lane id=":10308420013_9_0" index="0" disallow="tram rail_urban rail rail_electric rail_fast ship" speed="3.65" length="3.23" shape="1038.09,754.97 1037.37,754.44 1037.36,753.55 1038.05,752.29"/>
    </edge>
    <edge id=":10308420013_6" function="internal">
        <lane id=":10308420013_6_0" index="0" disallow="tram rail_urban rail rail_electric rail_fast ship" speed="13.89" length="14.45" shape="1025.17,758.84 1038.05,752.29"/>
    </edge>
    <edge id=":10308420013_7" function="internal">
        <lane id=":10308420013_7_0" index="0" disallow="tram rail_urban rail rail_electric rail_fast ship" speed="7.71" length="4.21" shape="1025.17,758.84 1029.17,757.51"/>
    </edge>
    <edge id=":10308420013_8" function="internal">
        <lane id=":10308420013_8_0" index="0" disallow="tram rail_urban rail rail_electric rail_fast ship" speed="3.65" length="1.44" shape="1025.17,758.84 1026.61,759.02"/>
    </edge>
    <edge id=":10308420013_10" function="internal">
        <lane id=":10308420013_10_0" index="0" disallow="tram rail_urban rail rail_electric rail_fast ship" speed="7.71" length="10.73" shape="1029.17,757.51 1032.41,757.91 1034.89,760.02 1036.62,763.86"/>
    </edge>
    <edge id=":10308420013_11" function="internal">
        <lane id=":10308420013_11_0" index="0" disallow="tram rail_urban rail rail_electric rail_fast ship" speed="3.65" length="3.23" shape="1026.61,759.02 1027.32,759.55 1027.32,760.45 1026.61,761.70"/>
    </edge>
    <edge id=":10548781950_0" function="internal">
        <lane id=":10548781950_0_0" index="0" disallow="tram rail_urban rail rail_electric rail_fast ship" speed="3.65" length="4.67" shape="816.84,297.55 815.68,296.70 815.32,295.88 815.75,295.10 816.99,294.35"/>
    </edge>
    <edge id=":10610428371_0" function="internal">
        <lane id=":10610428371_0_0" index="0" disallow="tram rail_urban rail rail_electric rail_fast ship" speed="3.65" length="4.67" shape="219.60,317.70 218.37,318.45 217.48,318.48 216.92,317.79 216.69,316.36"/>
    </edge>
    <edge id=":10610428374_0" function="internal">
        <lane id=":10610428374_0_0" index="0" disallow="tram rail_urban rail rail_electric rail_fast ship" speed="27.78" length="10.33" shape="292.97,232.20 299.45,240.25"/>
    </edge>
    <edge id=":10610428374_1" function="internal">
        <lane id=":10610428374_1_0" index="0" disallow="tram rail_urban rail rail_electric rail_fast ship" speed="5.79" length="9.26" shape="292.97,232.20 294.55,234.99 294.91,237.12 294.06,238.58 291.99,239.37"/>
    </edge>
    <edge id=":10610428374_2" function="internal">
        <lane id=":10610428374_2_0" index="0" disallow="tram rail_urban rail rail_electric rail_fast ship" speed="8.31" length="9.40" shape="291.45,236.21 293.51,236.20 295.53,236.87 297.51,238.21 299.45,240.25"/>
    </edge>
    <edge id=":10610428374_3" function="internal">
        <lane id=":10610428374_3_0" index="0" disallow="tram rail_urban rail rail_electric rail_fast ship" speed="3.65" length="4.67" shape="291.45,236.21 292.77,236.80 293.29,237.52 293.04,238.38 291.99,239.37"/>
    </edge>
    <edge id=":11036811251_0" function="internal">
        <lane id=":11036811251_0_0" index="0" disallow="tram rail_urban rail rail_electric rail_fast ship" speed="3.65" length="4.67" shape="794.14,227.95 792.79,227.43 792.23,226.73 792.44,225.87 793.44,224.83"/>
    </edge>
    <edge id=":11083378317_0" function="internal">
        <lane id=":11083378317_0_0" index="0" disallow="tram rail_urban rail rail_electric rail_fast ship" speed="6.36" length="9.04" shape="463.10,765.92 460.61,766.08 458.82,767.02 457.74,768.72 457.37,771.19"/>
    </edge>
    <edge id=":11083378317_1" function="internal">
        <lane id=":11083378317_1_0" index="0" disallow="tram rail_urban rail rail_electric rail_fast ship" speed="13.89" length="14.40" shape="463.10,765.92 448.76,764.70"/>
    </edge>
    <edge id=":11083378317_2" function="internal">
        <lane id=":11083378317_2_0" index="0" disallow="tram rail_urban rail rail_electric rail_fast ship" speed="3.65" length="1.44" shape="463.10,765.92 461.97,765.03"/>
    </edge>
    <edge id=":11083378317_9" function="internal">
        <lane id=":11083378317_9_0" index="0" disallow="tram rail_urban rail rail_electric rail_fast ship" speed="3.65" length="3.23" shape="461.97,765.03 461.63,764.20 462.09,763.43 463.35,762.73"/>
    </edge>
    <edge id=":11083378317_3" function="internal">
        <lane id=":11083378317_3_0" index="0" disallow="tram rail_urban rail rail_electric rail_fast ship" speed="13.89" length="14.35" shape="449.06,761.51 463.35,762.73"/>
    </edge>
    <edge id=":11083378317_4" function="internal">
        <lane id=":11083378317_4_0" index="0" disallow="tram rail_urban rail rail_electric rail_fast ship" speed="8.29" length="3.88" shape="449.06,761.51 452.71,762.41 452.81,762.48"/>
    </edge>
    <edge id=":11083378317_5" function="internal">
        <lane id=":11083378317_5_0" index="0" disallow="tram rail_urban rail rail_electric rail_fast ship" speed="3.65" length="1.44" shape="449.06,761.51 450.18,762.42"/>
    </edge>
    <edge id=":11083378317_10" function="internal">
        <lane id=":11083378317_10_0" index="0" disallow="tram rail_urban rail rail_electric rail_fast ship" speed="8.29" length="10.40" shape="452.81,762.48 455.32,764.32 456.87,767.25 457.37,771.19"/>
    </edge>
    <edge id=":11083378317_11" function="internal">
        <lane id=":11083378317_11_0" index="0" disallow="tram rail_urban rail rail_electric rail_fast ship" speed="3.65" length="3.23" shape="450.18,762.42 450.50,763.25 450.03,764.01 448.76,764.70"/>
    </edge>
    <edge id=":11083378317_6" function="internal">
        <lane id=":11083378317_6_0" index="0" disallow="tram rail_urban rail rail_electric rail_fast ship" speed="6.85" length="9.45" shape="454.17,771.18 453.85,768.53 452.83,766.57 451.14,765.29 448.76,764.70"/>
    </edge>
    <edge id=":11083378317_7" function="internal">
        <lane id=":11083378317_7_0" index="0" disallow="tram rail_urban rail rail_electric rail_fast ship" speed="7.88" length="14.47" shape="454.17,771.18 454.76,767.21 456.49,764.48 459.36,762.99 463.35,762.73"/>
    </edge>
    <edge id=":11083378317_8" function="internal">
        <lane id=":11083378317_8_0" index="0" disallow="tram rail_urban rail rail_electric rail_fast ship" speed="3.65" length="4.67" shape="454.17,771.18 454.98,769.98 455.78,769.58 456.58,769.99 457.37,771.19"/>
    </edge>
    <edge id=":11083378319_0" function="internal">
        <lane id=":11083378319_0_0" index="0" disallow="tram rail_urban rail rail_electric rail_fast ship" speed="3.65" length="4.67" shape="457.46,844.95 456.66,846.16 455.87,846.56 455.06,846.17 454.26,844.97"/>
    </edge>
    <edge id=":11149727987_0" function="internal">
        <lane id=":11149727987_0_0" index="0" allow="pedestrian delivery bicycle" speed="3.65" length="4.67" shape="779.62,929.72 780.46,930.89 780.56,931.78 779.91,932.39 778.50,932.72"/>
    </edge>
    <edge id=":11149727991_0" function="internal">
        <lane id=":11149727991_0_0" index="0" disallow="tram rail_urban rail rail_electric rail_fast ship" speed="3.65" length="4.67" shape="934.49,937.23 935.64,938.10 935.98,938.93 935.53,939.70 934.28,940.42"/>
    </edge>
    <edge id=":11187225714_0" function="internal">
        <lane id=":11187225714_0_0" index="0" allow="pedestrian delivery bicycle" speed="3.65" length="4.67" shape="707.82,1106.36 708.67,1107.52 708.77,1108.41 708.12,1109.02 706.71,1109.36"/>
    </edge>
    <edge id=":11187282309_0" function="internal">
        <lane id=":11187282309_0_0" index="0" disallow="tram rail_urban rail rail_electric rail_fast ship" speed="7.02" length="9.44" shape="144.01,825.86 143.65,823.46 142.56,821.61 140.74,820.33 138.20,819.61"/>
    </edge>
    <edge id=":11187282309_1" function="internal">
        <lane id=":11187282309_1_0" index="0" disallow="tram rail_urban rail rail_electric rail_fast ship" speed="8.70" length="14.38" shape="144.01,825.86 144.51,821.91 145.99,818.85 148.48,816.70 151.97,815.44"/>
    </edge>
    <edge id=":11187282309_2" function="internal">
        <lane id=":11187282309_2_0" index="0" disallow="tram rail_urban rail rail_electric rail_fast ship" speed="3.65" length="4.67" shape="144.01,825.86 144.81,824.66 145.61,824.26 146.41,824.66 147.21,825.86"/>
    </edge>
    <edge id=":11187282309_3" function="internal">
        <lane id=":11187282309_3_0" index="0" disallow="tram rail_urban rail rail_electric rail_fast ship" speed="7.29" length="9.83" shape="152.48,818.60 150.17,819.45 148.53,820.95 147.54,823.08 147.21,825.86"/>
    </edge>
    <edge id=":11187282309_4" function="internal">
        <lane id=":11187282309_4_0" index="0" disallow="tram rail_urban rail rail_electric rail_fast ship" speed="13.89" length="14.40" shape="152.48,818.60 148.88,819.28 145.36,819.76 141.83,819.91 138.20,819.61"/>
    </edge>
    <edge id=":11187282309_5" function="internal">
        <lane id=":11187282309_5_0" index="0" disallow="tram rail_urban rail rail_electric rail_fast ship" speed="3.65" length="1.44" shape="152.48,818.60 151.17,818.00"/>
    </edge>
    <edge id=":11187282309_9" function="internal">
        <lane id=":11187282309_9_0" index="0" disallow="tram rail_urban rail rail_electric rail_fast ship" speed="3.65" length="3.23" shape="151.17,818.00 150.65,817.28 150.91,816.42 151.97,815.44"/>
    </edge>
    <edge id=":11187282309_6" function="internal">
        <lane id=":11187282309_6_0" index="0" disallow="tram rail_urban rail rail_electric rail_fast ship" speed="13.89" length="14.38" shape="137.69,816.30 141.32,816.62 144.85,816.52 148.37,816.10 151.97,815.44"/>
    </edge>
    <edge id=":11187282309_7" function="internal">
        <lane id=":11187282309_7_0" index="0" disallow="tram rail_urban rail rail_electric rail_fast ship" speed="8.67" length="4.19" shape="137.69,816.30 141.73,817.40"/>
    </edge>
    <edge id=":11187282309_8" function="internal">
        <lane id=":11187282309_8_0" index="0" disallow="tram rail_urban rail rail_electric rail_fast ship" speed="3.71" length="1.71" shape="137.69,816.30 139.06,816.94 139.18,817.10"/>
    </edge>
    <edge id=":11187282309_10" function="internal">
        <lane id=":11187282309_10_0" index="0" disallow="tram rail_urban rail rail_electric rail_fast ship" speed="8.67" length="10.71" shape="141.73,817.40 141.85,817.44 144.83,819.41 146.61,822.22 147.21,825.86"/>
    </edge>
    <edge id=":11187282309_11" function="internal">
        <lane id=":11187282309_11_0" index="0" disallow="tram rail_urban rail rail_electric rail_fast ship" speed="3.71" length="3.19" shape="139.18,817.10 139.60,817.70 139.32,818.59 138.20,819.61"/>
    </edge>
    <edge id=":11187282310_0" function="internal">
        <lane id=":11187282310_0_0" index="0" disallow="tram rail_urban rail rail_electric rail_fast ship" speed="3.65" length="4.67" shape="147.27,853.60 146.47,854.80 145.67,855.21 144.87,854.81 144.07,853.61"/>
    </edge>
    <edge id=":11187286828_0" function="internal">
        <lane id=":11187286828_0_0" index="0" disallow="tram rail_urban rail rail_electric rail_fast ship" speed="13.89" length="8.43" shape="725.32,858.78 724.13,860.97 723.27,862.46 722.51,863.98 721.61,866.30"/>
        <lane id=":11187286828_0_1" index="1" disallow="tram rail_urban rail rail_electric rail_fast ship" speed="13.89" length="8.43" shape="722.47,857.32 721.27,859.52 720.40,861.01 719.63,862.54 718.72,864.87"/>
    </edge>
    <edge id=":11187286828_2" function="internal">
        <lane id=":11187286828_2_0" index="0" allow="pedestrian delivery bicycle" speed="6.98" length="8.36" shape="722.47,857.32 721.05,859.62 719.54,861.17 717.93,861.95 716.23,861.98"/>
    </edge>
    <edge id=":11187286828_3" function="internal">
        <lane id=":11187286828_3_0" index="0" allow="pedestrian delivery bicycle" speed="5.68" length="7.33" shape="716.87,858.84 718.38,859.50 719.19,860.73 719.30,862.52 718.72,864.87"/>
    </edge>
    <edge id=":11187286828_4" function="internal">
        <lane id=":11187286828_4_0" index="0" allow="pedestrian delivery bicycle" speed="3.65" length="4.67" shape="716.87,858.84 717.89,859.87 718.12,860.73 717.57,861.43 716.23,861.98"/>
    </edge>
    <edge id=":11187286835_0" function="internal">
        <lane id=":11187286835_0_0" index="0" allow="pedestrian delivery bicycle" speed="3.65" length="4.67" shape="588.58,664.20 589.70,663.29 590.58,663.15 591.23,663.77 591.63,665.15"/>
    </edge>
    <edge id=":11187305605_0" function="internal">
        <lane id=":11187305605_0_0" index="0" disallow="tram rail_urban rail rail_electric rail_fast ship" speed="13.89" length="13.71" shape="626.81,232.20 623.85,234.16 621.16,236.09 618.59,238.16 615.98,240.57"/>
    </edge>
    <edge id=":11187305605_1" function="internal">
        <lane id=":11187305605_1_0" index="0" disallow="tram rail_urban rail rail_electric rail_fast ship" speed="7.65" length="4.18" shape="626.81,232.20 623.01,233.94"/>
    </edge>
    <edge id=":11187305605_2" function="internal">
        <lane id=":11187305605_2_0" index="0" disallow="tram rail_urban rail rail_electric rail_fast ship" speed="3.65" length="1.44" shape="626.81,232.20 625.37,232.18"/>
    </edge>
    <edge id=":11187305605_9" function="internal">
        <lane id=":11187305605_9_0" index="0" disallow="tram rail_urban rail rail_electric rail_fast ship" speed="7.65" length="10.95" shape="623.01,233.94 622.90,233.98 619.63,233.91 616.99,231.97 614.98,228.18"/>
    </edge>
    <edge id=":11187305605_10" function="internal">
        <lane id=":11187305605_10_0" index="0" disallow="tram rail_urban rail rail_electric rail_fast ship" speed="3.65" length="3.23" shape="625.37,232.18 624.60,231.72 624.50,230.83 625.08,229.51"/>
    </edge>
    <edge id=":11187305605_3" function="internal">
        <lane id=":11187305605_3_0" index="0" disallow="tram rail_urban rail rail_electric rail_fast ship" speed="6.07" length="9.07" shape="618.00,227.10 619.20,229.37 620.78,230.53 622.74,230.58 625.08,229.51"/>
    </edge>
    <edge id=":11187305605_4" function="internal">
        <lane id=":11187305605_4_0" index="0" disallow="tram rail_urban rail rail_electric rail_fast ship" speed="9.73" length="14.43" shape="618.00,227.10 619.01,231.13 619.02,234.72 618.01,237.87 615.98,240.57"/>
    </edge>
    <edge id=":11187305605_5" function="internal">
        <lane id=":11187305605_5_0" index="0" disallow="tram rail_urban rail rail_electric rail_fast ship" speed="3.65" length="4.67" shape="618.00,227.10 617.65,228.50 617.03,229.14 616.14,229.04 614.98,228.18"/>
    </edge>
    <edge id=":11187305605_6" function="internal">
        <lane id=":11187305605_6_0" index="0" disallow="tram rail_urban rail rail_electric rail_fast ship" speed="8.47" length="10.77" shape="613.75,238.28 615.17,236.33 615.85,234.00 615.79,231.28 614.98,228.18"/>
    </edge>
    <edge id=":11187305605_7" function="internal">
        <lane id=":11187305605_7_0" index="0" disallow="tram rail_urban rail rail_electric rail_fast ship" speed="13.89" length="14.35" shape="613.75,238.28 616.43,235.81 619.18,233.60 622.04,231.53 625.08,229.51"/>
    </edge>
    <edge id=":11187305605_8" function="internal">
        <lane id=":11187305605_8_0" index="0" disallow="tram rail_urban rail rail_electric rail_fast ship" speed="3.65" length="1.44" shape="613.75,238.28 615.16,238.01"/>
    </edge>
    <edge id=":11187305605_11" function="internal">
        <lane id=":11187305605_11_0" index="0" disallow="tram rail_urban rail rail_electric rail_fast ship" speed="3.65" length="3.23" shape="615.16,238.01 616.01,238.30 616.28,239.15 615.98,240.57"/>
    </edge>
    <edge id=":11187305606_0" function="internal">
        <lane id=":11187305606_0_0" index="0" disallow="tram rail_urban rail rail_electric rail_fast ship" speed="3.65" length="4.67" shape="596.52,176.61 596.87,175.21 597.49,174.56 598.38,174.67 599.53,175.53"/>
    </edge>
    <edge id=":11187780370_0" function="internal">
        <lane id=":11187780370_0_0" index="0" disallow="tram rail_urban rail rail_electric rail_fast ship" speed="6.69" length="7.13" shape="822.05,590.47 823.30,590.61 824.70,590.11 826.26,588.97 827.96,587.20"/>
    </edge>
    <edge id=":11187780370_1" function="internal">
        <lane id=":11187780370_1_0" index="0" disallow="tram rail_urban rail rail_electric rail_fast ship" speed="27.78" length="10.76" shape="822.05,590.47 831.87,594.86"/>
    </edge>
    <edge id=":11187780370_2" function="internal">
        <lane id=":11187780370_2_0" index="0" disallow="tram rail_urban rail rail_electric rail_fast ship" speed="13.89" length="10.48" shape="821.24,595.29 827.96,587.20"/>
        <lane id=":11187780370_2_1" index="1" disallow="tram rail_urban rail rail_electric rail_fast ship" speed="13.89" length="10.48" shape="823.72,597.31 830.40,589.28"/>
    </edge>
    <edge id=":11187780370_4" function="internal">
        <lane id=":11187780370_4_0" index="0" disallow="tram rail_urban rail rail_electric rail_fast ship" speed="7.23" length="9.26" shape="823.72,597.31 825.62,595.46 827.61,594.43 829.69,594.23 831.87,594.86"/>
    </edge>
    <edge id=":11198460350_0" function="internal">
        <lane id=":11198460350_0_0" index="0" disallow="tram rail_urban rail rail_electric rail_fast ship" speed="3.65" length="4.67" shape="958.41,946.22 957.05,945.72 956.48,945.03 956.68,944.16 957.66,943.11"/>
    </edge>
    <edge id=":11206122740_0" function="internal">
        <lane id=":11206122740_0_0" index="0" disallow="tram rail_urban rail rail_electric rail_fast ship" speed="3.65" length="4.67" shape="158.29,463.48 156.97,462.89 156.44,462.17 156.71,461.31 157.75,460.33"/>
    </edge>
    <edge id=":11209777307_0" function="internal">
        <lane id=":11209777307_0_0" index="0" disallow="tram rail_urban rail rail_electric rail_fast ship" speed="6.95" length="9.60" shape="730.40,275.48 729.78,273.11 728.46,271.41 726.44,270.39 723.72,270.04"/>
    </edge>
    <edge id=":11209777307_1" function="internal">
        <lane id=":11209777307_1_0" index="0" disallow="tram rail_urban rail rail_electric rail_fast ship" speed="13.89" length="14.44" shape="730.40,275.48 728.93,261.11"/>
    </edge>
    <edge id=":11209777307_2" function="internal">
        <lane id=":11209777307_2_0" index="0" disallow="tram rail_urban rail rail_electric rail_fast ship" speed="3.65" length="1.44" shape="730.40,275.48 731.08,274.20"/>
    </edge>
    <edge id=":11209777307_9" function="internal">